powerflow/Codes/PF_Formulation/resultados_csv/17/caso_red2/resultados_barras_SIN.csv
ID_Barra,Tipo_Barra,Tensao_Mag_pu,Tensao_Ang_graus,P_Geracao_pu,Q_Geracao_pu,P_Carga_pu,Q_Carga_pu,Desvio_Tensao_QLIM_pu,Corte_Reativo_VLIM_pu
5002,1,0.9955972694266862,11.301566027286276,0.0,0.0,0.0,0.0,0.0,1.9948442478110447e-6
5008,1,0.9968415864929633,11.369664706965365,0.0,0.0,0.0,0.0,0.0,1.9894455500171357e-6
5019,1,0.9958979668397437,9.452949929861063,0.0,0.0,0.0,0.0,0.0,1.9656586856301117e-6
5020,1,0.989038812804517,2.0660835641738595,0.0,0.0,0.0,0.0,0.0,-2.3767670170109944e-12
5034,1,0.9988513922807649,13.974009950637317,0.0,0.0,0.0,0.0,0.0,-4.4385198171191396e-6
5035,1,1.0090587854131305,9.774570605676296,0.0,0.0,0.0,0.0,0.0,-4.291300592353036e-6
5036,1,0.997536559452219,11.612959475643324,0.0,0.0,0.0,0.0,0.0,-1.847008004486971e-5
5041,1,1.0034131820260088,9.58944554350023,0.0,0.0,0.0,0.0,0.0,-1.8127578880586523e-5
5042,1,0.9982182519616799,11.419628818866729,0.0,0.0,0.0,0.0,0.0,-1.842937050822584e-5
5043,1,0.9998270080087848,11.528499954298152,0.0,0.0,0.0,0.0,0.0,-1.842307043944717e-5
5044,1,0.9971136357209502,12.61811471433061,0.0,0.0,-0.29600000000000004,0.0538,0.0,-1.858273341667635e-5
5068,1,1.0022722785255993,7.826631314046499,0.0,0.0,0.0,0.0,0.0,-6.535738855134688e-5
5069,1,1.0022535634808794,7.826631314046499,0.0,0.0,0.0,0.0,0.0,-6.535982923932895e-5
5071,1,1.0054575970019244,6.3286141871282595,0.0,0.0,0.0,0.0,0.0,-6.346406609872915e-5
5073,1,1.0026406415155262,7.703059346902369,0.0,0.0,0.032,0.015,0.0,-6.521000953713715e-5
5075,1,0.9957507686599153,10.280119635772438,0.0,0.0,-0.12,0.044500000000000005,0.0,-6.771737924866135e-5
5078,1,1.0016718600108268,13.133501281350274,0.0,0.0,-0.315,0.0463,0.0,-1.859881200881752e-5
5079,1,0.9969138945455486,10.474931380183046,0.0,0.0,-0.1,0.038,0.0,-6.792495671863888e-5
5081,1,1.0064991508536094,-5.004689376165978,0.0,0.0,0.0,0.0,0.0,3.238690472650256e-8
5083,1,1.000440823144779,-7.822545686323606,0.0,0.0,1.7310000000000003,0.37799999999999995,0.0,3.328302353972543e-8
5124,1,0.9970769474500703,11.755907073741337,0.0,0.0,-0.132,0.0025700000000000002,0.0,1.9645001373215964e-6
5126,1,0.9963591734686628,12.807353465943702,0.0,0.0,-0.327,0.0604,0.0,-1.8625542225516726e-5
5127,1,1.000113293335819,13.412339401781471,0.0,0.0,-0.218,0.0168,0.0,2.0050240403034663e-6
5128,1,0.9937481896758589,7.515878091036414,0.0,0.0,0.0,0.0,0.0,-7.325737729078035e-7
5168,1,0.9924858090739765,8.339424572463955,0.0,0.0,0.0,0.0,0.0,1.9455618177132694e-6
5169,1,0.9784821155397301,8.779444050682166,0.0,0.0,0.0,0.0,0.0,1.973590154048603e-6
5170,1,0.9983269012946289,14.839263376716186,0.0,0.0,-0.792,0.0978,0.0,-4.45653985679102e-6
5176,1,1.0585538525570506,-4.118635133896453,0.0,0.0,1.892,-0.215,0.0,1.9580038234458673e-8
5200,1,1.0672755728601224,-4.6208742994001675,0.0,0.0,15.36,-4.89,0.0,3.395627842162082e-5
5202,1,1.0075768562224103,-5.998411182577283,0.0,0.0,0.0,0.0,0.0,5.907153968317538e-5
5211,1,0.9942415832089038,-14.245589203044782,0.0,0.0,0.0,0.0,0.0,4.598169689233421e-5
5212,1,0.9939496483055182,-14.310359240926285,0.0,0.0,0.9878,0.07346,0.0,4.60528086141559e-5
5213,1,1.0073182239769136,-19.516160981348087,0.0,0.0,2.952,0.971,0.0,4.983764377103457e-5
5214,1,1.0065078883958751,-19.76310002785604,0.0,0.0,0.0,0.0,0.0,4.9977782414973535e-5
5215,1,1.0065012320599227,-19.76310002785604,0.0,0.0,0.0,0.0,0.0,4.997844339452299e-5
5216,1,1.008616981567429,-6.868639738298797,0.0,0.0,1.536,0.07609,0.0,6.810072310779852e-5
5218,2,0.9942416336137994,-14.245590655401967,0.0,0.0,0.0,0.0,0.0,0.0
5219,2,0.9942416336137994,-14.245590655401967,0.0,0.0,0.0,0.0,0.0,0.0
5220,2,1.0088821641329624,-6.700838541002753,0.0,0.0,0.0,0.0,0.0,0.0
5222,1,1.0088821641329624,-6.700838541002753,0.0,0.0,5.082,-0.179,0.0,6.837786620609532e-5
5226,1,1.0132188736107022,-8.353268870028067,0.0,0.0,-0.23600000000000002,-0.001,0.0,7.161216980923626e-5
5231,1,1.0051203899856214,-6.235891257349048,0.0,0.0,0.0,0.0,0.0,-0.00018041105705757265
5232,2,1.0500000085343775,-6.244332176308672,0.0,0.19999997138704836,0.0,0.0,0.0,0.0
5235,1,1.0021944061804724,-5.8752641995414,0.0,0.0,0.0,0.0,0.0,-0.0003738176478474799
5236,1,1.005104881877851,-6.235891257349048,0.0,0.0,0.0,0.0,0.0,-0.0001804166242632297
5237,1,1.0152567824054208,-6.244332176308672,0.0,0.0,0.0,0.0,0.0,-0.00014050436615031895
5238,1,1.0270872584159438,-6.244332176308672,0.0,0.0,0.0,0.0,0.0,-9.992714870014449e-5
5239,1,0.9985580063471456,-6.700838541002753,0.0,0.0,0.0,0.0,0.0,5.700465073000861e-7
5240,2,0.9958661007208724,0.24472167365164182,0.0,0.0,0.0,0.0,0.0,0.0
5241,1,1.000173724723415,1.4832898909705925,0.0,0.0,0.0,0.0,0.0,-6.899285780290536e-5
5242,2,0.9958661007208724,0.24472167365164182,0.0,0.0,0.0,0.0,0.0,0.0
5243,1,1.0105049445397487,-1.5088743832770306,0.0,0.0,1.6480000000000001,0.040999999999999995,0.0,-0.0001821609459917119
5245,1,1.000398126537098,1.7293860472032625,0.0,0.0,0.0,0.0,0.0,-5.4774920159794816e-5
5246,1,0.9956106977613812,0.24916050820128938,0.0,0.0,1.014,0.08,0.0,-5.510705211132559e-5
5247,1,1.0123780636377242,-8.445203379158812,0.0,0.0,0.0,0.0,0.0,7.178500897125331e-5
5248,1,1.0123735432359235,-8.445203379158812,0.0,0.0,0.0,0.0,0.0,7.178565000666022e-5
5249,1,0.9500029886744451,-8.259187220296084,0.0,0.0,0.0,0.0,0.0,-0.001144154602121866
5252,1,1.0387645754084638,-0.021799037019981243,0.0,0.0,0.0,0.0,0.0,-0.0002446043911022248
5253,1,1.0033964789004868,-1.7144485200004165,0.0,0.0,0.0,0.0,0.0,-0.00024828391543144654
5254,1,1.0014614859283115,2.9613033849558366,0.0,0.0,0.0,0.0,0.0,-7.367872760901939e-5
5255,1,1.0420063152504446,0.5615125462627227,0.0,0.0,0.0,0.0,0.0,-0.0002374898911813572
5256,1,1.0034951797196114,-1.7144485200004165,0.0,0.0,0.0,0.0,0.0,-0.00024823507826054434
5257,1,0.995828574095365,0.2452127006913806,0.0,0.0,0.0,0.0,0.0,-5.510449830178695e-5
5258,1,0.9958661007208724,0.24472167365164182,0.0,0.0,0.0,0.0,0.0,-5.5104069259098415e-5
5259,1,1.0125653978538702,-8.424151107239505,0.0,0.0,0.0,0.0,0.0,7.174618322900686e-5
5262,1,1.0065613205338917,6.455212157102261,0.0,0.0,0.0,0.0,0.0,-6.382461853140495e-5
5263,1,0.9989135187843795,6.190278246698938,0.0,0.0,0.34900000000000003,0.01,0.0,-6.449972592269237e-5
5264,1,1.0125702443940967,-8.424151107239505,0.0,0.0,0.0,0.0,0.0,7.174549645233486e-5
5265,1,1.0015270385033657,6.449755686847207,0.0,0.0,0.0,0.0,0.0,-6.383498133868737e-5
5267,1,1.0015270385033657,6.449755686847207,0.0,0.0,0.0,0.0,0.0,-6.383498133868738e-5
5268,1,1.001499172402134,6.449755686847207,0.0,0.0,0.0,0.0,0.0,-6.383853345596833e-5
5269,1,1.001499172402134,6.449755686847207,0.0,0.0,0.0,0.0,0.0,-6.383853345596833e-5
5271,1,0.9954646114108973,-14.328530287829773,0.0,0.0,1.8969999999999998,0.1844,0.0,4.5935553874289925e-5
5272,1,1.0082236843464603,-13.81441371171145,0.0,0.0,0.0,0.0,0.0,4.5430177701897654e-5
5273,1,1.005633174363396,-16.692864482299,0.0,0.0,1.963,0.7390000000000001,0.0,4.808412303106789e-5
5274,1,1.0082146464936301,-13.814402188393622,0.0,0.0,0.0,0.0,0.0,4.543099952782547e-5
5276,1,1.0114024818452088,-1.734881523131321,0.0,0.0,0.0,0.0,0.0,-0.00019064506465702146
5277,1,1.0114170802085534,-1.734881523131321,0.0,0.0,0.0,0.0,0.0,-0.00019063956139316954
5285,1,1.0285637111461647,-2.838525226930376,0.0,0.0,0.0,0.0,0.0,-1.119210817261634e-8
5286,1,1.0285637089323647,-2.8385252220818713,0.0,0.0,0.0,0.0,0.0,-1.1192027306004098e-8
5287,1,0.9954793881464641,-4.137585692416191,0.0,0.0,0.0,0.0,0.0,1.9571333975775365e-8
5288,1,0.9954793831504459,-4.137585692416191,0.0,0.0,0.0,0.0,0.0,1.9571199063294326e-8
5299,1,1.0139170999303146,17.3003470562756,0.0,0.0,-0.516,0.032,0.0,-7.164018269089075e-6
5315,1,1.0194939497800501,10.581129517390316,0.0,0.0,-0.324,0.1,0.0,9.570586262087653e-6
5318,1,1.0606884211121124,-4.00842467897307,0.0,0.0,1.47,-0.36700000000000005,0.0,1.311240378632936e-8
5320,1,0.9945676940350249,0.6839414656329478,0.0,0.0,-0.084,0.0101,0.0,1.3804894326244865e-8
5337,1,1.0090432992736256,9.762621000753727,0.0,0.0,0.0,0.0,0.0,-4.290788748726288e-6
5350,1,1.0597053791515338,8.263688771560727,0.0,0.0,0.0,0.0,0.0,-2.6012404108076608e-6
5351,1,0.9942771910947243,10.785259059835903,0.0,0.0,0.0,0.0,0.0,-1.3173393531068712e-5
5352,1,1.010205466592745,12.888819750194166,0.0,0.0,0.0,0.0,0.0,-7.09856243091275e-6
5353,1,1.0064383780521746,14.270695736672662,0.0,0.0,0.0,0.0,0.0,-7.1592439845533364e-6
5370,1,1.0474222981159764,-2.7709953012196276,0.0,0.0,0.0,0.0,0.0,6.195992862917039e-12
5371,1,0.9822535806586573,-2.2378204128938144,0.0,0.0,0.0,0.0,0.0,3.5597165589357294e-12
5373,1,0.9881829585548586,1.8591302298167907,0.0,0.0,0.0,0.0,0.0,-1.4460547419921497e-12
5374,1,0.9956524529090678,3.3385166089583325,0.0,0.0,-0.192,0.0163,0.0,-1.8781492979188584e-12
5376,1,1.0015131601053602,9.673354265023786,0.0,0.0,0.0,0.0,0.0,-1.8468820056279413e-5
5377,1,1.001523551237729,9.673354265023786,0.0,0.0,0.0,0.0,0.0,-1.846843618705737e-5
5378,1,1.0325547767962062,-8.392192110746635,0.0,0.0,2.092,-0.14,0.0,2.1408107862891246e-5
5380,1,1.0475945022401951,-1.6187015660672373,0.0,0.0,12.24,-3.0,0.0,1.1019356431999678e-5
5381,1,1.009179438854513,-3.14964224951311,0.0,0.0,0.0,0.0,0.0,-1.131004384092988e-8
5383,1,0.9969224251898134,-4.688188870265311,0.0,0.0,1.8689999999999998,0.953,0.0,-1.1818650793233488e-8
5386,1,1.0147351441308121,-7.834236804037451,0.0,0.0,0.0,0.0,0.0,3.3553173733730023e-8
5387,1,1.015453663459729,-7.840218568172948,0.0,0.0,0.0,0.0,0.0,3.354419181219912e-8
5388,1,1.015453654075551,-7.8402185473534,0.0,0.0,0.0,0.0,0.0,3.35440648927143e-8
5394,1,1.0044644884470255,13.013073638990086,0.0,0.0,0.0,0.0,0.0,-1.893476759428103e-5
5407,1,1.0059982941267163,9.990877344793937,0.0,0.0,0.0,0.0,0.0,-1.8063801729439425e-5
5408,1,1.0473424311828479,-1.579723818504122,0.0,0.0,0.0,0.0,0.0,1.090532126495575e-5
5409,1,0.978367164091102,-2.227712569376856,0.0,0.0,0.0,0.0,0.0,7.945635985242812e-6
5410,1,1.0139806755624712,-0.44489561429013524,0.0,0.0,0.0,0.0,0.0,-4.955266646047525e-5
5411,1,1.0254821647310095,-0.44489561429013524,0.0,0.0,-0.233,0.01135,0.0,7.712832448952632e-6
5412,1,1.0042467613336734,-2.227712569376856,0.0,0.0,0.0,0.0,0.0,7.945607095431815e-6
5413,1,1.0154412000612847,-2.143537873207028,0.0,0.0,0.8619999999999999,0.35700000000000004,0.0,7.935282255925902e-6
5414,1,1.0093829976855566,-2.226657160369061,0.0,0.0,0.0,0.0,0.0,7.94547957973155e-6
5415,1,0.9963044364925949,-2.226657160369061,0.0,0.0,0.0,0.0,0.0,7.945511646611381e-6
5416,1,1.0075418977267012,-4.3302625210501136,0.0,0.0,0.10300000000000001,0.057999999999999996,0.0,8.316733611313093e-6
5417,1,1.0196891221599176,-4.195568100011341,0.0,0.0,0.0,0.0,0.0,8.29461932958681e-6
5418,1,1.0152058016427858,-2.227712569376856,0.0,0.0,0.0,0.0,0.0,7.945581595217625e-6
5419,1,1.0148818443289138,-2.226657160369061,0.0,0.0,0.0,0.0,0.0,7.945452797149596e-6
5421,1,1.0217233625774358,4.883962366632313,0.0,0.0,0.0,0.0,0.0,-2.0747802960161195e-7
5422,1,1.0081676623184164,1.5855907758626357,0.0,0.0,0.142,0.028999999999999998,0.0,-2.1301807080779433e-7
5423,1,1.0101221933916822,2.863140776482532,0.0,0.0,0.784,0.217,0.0,-2.1204749961271748e-7
5424,1,0.9991685580067283,1.0076690759166478,0.0,0.0,0.0,0.0,0.0,-2.1697718733124869e-7
5425,1,1.0065823011914476,9.951558929928666,0.0,0.0,0.0,0.0,0.0,-1.8061584095494782e-5
5426,1,1.0086917345352389,0.9788078573975721,0.0,0.0,0.022000000000000002,0.006999999999999999,0.0,-2.1704671713445574e-7
5427,1,1.0065871817457572,9.95154999313682,0.0,0.0,0.0,0.0,0.0,-1.8061409633680138e-5
5428,1,1.0403214538800691,0.9468770705147537,0.0,0.0,0.0,0.0,0.0,1.9284334744198583e-6
5429,1,1.0059959298475842,9.990877344793937,0.0,0.0,0.0,0.0,0.0,-1.8063886571900356e-5
5431,1,1.009841788310789,8.500866394941207,0.0,0.0,0.0,0.0,0.0,-2.8990598732037935e-6
5433,1,1.0080966333190866,6.437303418214554,0.0,0.0,1.006,0.196,0.0,-2.954866103498354e-6
5434,1,1.0102887472776232,9.76318015775689,0.0,0.0,0.0,0.0,0.0,-2.9622472439661242e-6
5438,1,1.002415521496604,12.14353078226762,0.0,0.0,0.0,0.0,0.0,-3.068473273162795e-6
5439,1,1.0013105984783732,13.136352237224946,0.0,0.0,-0.42200000000000004,0.14300000000000002,0.0,-3.10334240424892e-6
5441,1,1.0090708755239657,10.499574966340802,0.0,0.0,0.0,0.0,0.0,-6.886901996284047e-6
5442,1,1.0126751245185694,9.363592335583153,0.0,0.0,0.0,0.0,0.0,-6.815340470741852e-6
5443,2,1.0123990698407652,9.446138287270356,1.162,0.19999987476030165,2.314,0.037000000000000005,0.0,-6.820901099546188e-6
5444,1,1.01322223915568,9.363059735977286,0.0,0.0,0.0,0.0,0.0,-6.815304402254034e-6
5445,1,0.9996245857056015,9.363059735977286,0.0,0.0,0.0,0.0,0.0,-6.815279317103625e-6
5448,1,0.9899679018031844,0.09503772476081761,0.0,0.0,0.0,0.0,0.0,1.5055724789713302e-8
5449,1,1.000857836630207,-1.7240978075785862,0.0,0.0,0.0,0.0,0.0,1.4616482674574471e-8
5451,1,1.0288860390216332,-2.459645407493354,0.0,0.0,0.0,0.0,0.0,4.2300943253975406e-8
5452,1,1.0149560741736716,-3.9995285626485453,0.0,0.0,0.0,0.0,0.0,3.190385496030449e-8
5453,1,1.0161526094917215,-7.488852999085247,0.0,0.0,2.4400000000000004,0.759,0.0,3.342944742606313e-8
5456,1,1.0147348871092605,-7.834236804037451,0.0,0.0,0.0,0.0,0.0,3.3555068458132805e-8
5457,1,1.0147337163562342,-7.834236804037451,0.0,0.0,0.0,0.0,0.0,3.356392849315124e-8
5458,1,1.0150862058080732,-3.9971170288066635,0.0,0.0,0.0,0.0,0.0,3.2158133729792756e-8
5459,1,1.0441005165293866,15.94874118828168,0.0,0.0,-0.455,0.0,0.0,-1.8433592437192075e-5
5460,2,1.0161526094917215,-7.488852999085247,0.0,0.0,0.0,0.0,0.0,0.0
5461,1,0.9994888577955189,10.61212783475803,0.0,0.0,0.0,0.0,0.0,-1.8088222687876233e-5
5462,1,1.0002394208880925,10.606032461253234,0.0,0.0,0.0,0.0,0.0,-1.8088681316360426e-5
5463,1,1.0058600972833596,10.003876719222738,0.0,0.0,0.5199999999999999,-0.013999999999999999,0.0,-1.8064472352403917e-5
5466,2,1.0002394208880925,10.606032461253234,0.0,0.0,0.0,0.0,0.0,0.0
5468,1,0.993479561629826,11.239404397138191,0.0,0.0,0.201,-0.005,0.0,-1.8382334840578232e-5
5470,1,1.0073553061008744,12.866549958089498,0.0,0.0,0.0,0.0,0.0,-1.808041959546233e-5
5471,1,1.0143184362393822,-4.1603042683573355,0.0,0.0,0.0,0.0,0.0,3.223314924437805e-8
5472,1,0.9884269147539976,2.682430985742947,0.0,0.0,-0.085,0.0167,0.0,1.4352556931781231e-8
5473,1,1.0059606384298545,-6.275331626383053,0.0,0.0,1.1989999999999998,0.36200000000000004,0.0,3.306352752056176e-8
5474,1,0.9907220404858136,10.469214549079728,0.0,0.0,0.0,0.0,0.0,-1.8431890425389302e-5
5475,1,1.00155664301826,9.735771028877624,0.0,0.0,0.098,0.006,0.0,-1.8466408203762495e-5
5476,1,1.0025271199818766,9.673354265023786,0.0,0.0,0.0,0.0,0.0,-1.8468435902940815e-5
5477,1,0.9677396485199169,14.842541634499211,0.0,0.0,0.0,0.0,0.0,-1.8277564174272967e-5
5478,1,1.0014681335605644,9.673354265023786,0.0,0.0,0.0,0.0,0.0,-1.846882008706813e-5
5480,1,1.0547986742418891,-3.7586716114840795,0.0,0.0,0.0,0.0,0.0,1.296423816518595e-8
5481,1,0.9940859751746141,-4.529176730247883,0.0,0.0,0.0,0.0,0.0,1.473734579028652e-8
5482,1,1.0014443582233952,-9.75155665402865,0.0,0.0,0.0,0.0,0.0,1.5112379350851448e-8
5483,1,1.0089472215848345,-7.940669472930576,0.0,0.0,1.885,0.20800000000000002,0.0,1.503849212098176e-8
5484,1,1.0094764236660234,-9.753943511475368,0.0,0.0,0.0,0.0,0.0,1.5111906425530572e-8
5485,1,1.0285428088069735,-9.753445337448529,0.0,0.0,0.0,0.0,0.0,1.511155601176941e-8
5486,1,0.9967436904964344,-3.643122894364935,0.0,0.0,0.0,0.0,0.0,1.3397482457078742e-8
5487,1,1.0178193324728522,-9.752098036679827,0.0,0.0,0.0,0.0,0.0,1.511221887303735e-8
5488,1,0.9942320678027936,-4.016176478975062,0.0,0.0,0.0,0.0,0.0,1.3988205164672921e-8
5489,1,0.9920173413842486,-1.6991416551757814,0.0,0.0,0.0,0.0,0.0,1.3770866938439156e-8
5518,1,1.0197423108905344,12.65431535319196,0.0,0.0,0.0,0.0,0.0,-1.8310812801473177e-5
5519,1,1.04045806526635,15.136704479301816,0.0,0.0,0.0,0.0,0.0,-1.8424069542520263e-5
5527,1,0.9969006838357514,-3.654989158268551,0.0,0.0,0.0,0.0,0.0,1.4088860399143018e-8
5536,1,0.9869928477404764,0.06068318310266658,0.0,0.0,0.0,0.0,0.0,1.4953104207343953e-8
5537,1,1.0007747711048895,-2.207071474075512,0.0,0.0,0.0,0.0,0.0,1.4437462509819703e-8
5611,1,0.9945093986680975,-6.935703629329401,0.0,0.0,0.08585000000000001,-0.0361,0.0,8.794829060907488e-6
5612,1,0.988530452785635,3.7410554631604773,0.0,0.0,-0.29100000000000004,0.0353,0.0,-3.014465367937262e-12
5613,1,1.0016316910322551,-8.020437670084332,0.0,0.0,0.305,-0.011000000000000001,0.0,8.788710524039406e-6
5621,1,1.0164159362435514,5.9066359440857985,0.0,0.0,0.0,0.0,0.0,8.99356346631855e-6
5623,1,1.0015794816536765,7.0275663333527705,0.0,0.0,0.785,0.55,0.0,9.345433483312254e-6
5624,1,1.0000775284017178,7.118916349097521,0.0,0.0,0.0,0.0,0.0,9.373481830330236e-6
5625,1,1.0000749457190587,7.118916349097521,0.0,0.0,0.0,0.0,0.0,9.373530103157945e-6
5626,1,1.0007347956472346,7.078887820174813,0.0,0.0,0.0,0.0,0.0,9.361203147892294e-6
5627,1,1.0007340861198262,7.078887820174813,0.0,0.0,0.0,0.0,0.0,9.361216383580425e-6
5631,1,1.025533089902572,3.9819464849102864,0.0,0.0,0.0,0.0,0.0,4.371246454041571e-6
5633,1,1.0101981796719037,2.1263013792364904,0.0,0.0,0.0,0.0,0.0,4.452835320080937e-6
5641,1,1.002897879461258,-5.16699019180524,0.0,0.0,0.0,0.0,0.0,3.287883431009443e-8
5643,1,1.016619841115096,-8.417967180659565,0.0,0.0,2.275,0.6709999999999999,0.0,3.4272392557249175e-8
5651,1,1.0072930034283165,-4.443501164355476,0.0,0.0,0.0,0.0,0.0,3.1757627791560266e-8
5653,1,1.002730881822442,-7.476954626618721,0.0,0.0,1.455,0.314,0.0,3.284266218724007e-8
5656,1,0.982283512163344,-2.2378256269686285,0.0,0.0,0.0,0.0,0.0,3.3898260853867693e-12
5658,2,0.982283512163344,-2.2378256269686285,0.0,0.0,0.0,0.0,0.0,0.0
5659,2,0.982283512163344,-2.2378256269686285,0.0,0.0,0.0,0.0,0.0,0.0
5660,2,1.0072930034283165,-4.443501164355476,0.0,0.0,0.0,0.0,0.0,0.0
5690,1,0.9818515059266668,-2.2308258824113056,0.0,0.0,1.66,0.546,0.0,3.529974565203239e-12
5702,1,1.0012490199045996,2.486907745696015,0.0,0.0,-0.486,0.00658,0.0,-1.2162356732681313e-8
5745,1,1.0138593776917553,15.184738073055275,0.0,0.0,0.0,0.0,0.0,-7.1122186741772705e-6
5746,3,0.9749015212181785,0.0,1.5967321199430413,-0.2592714896791827,0.0,0.0,0.0,0.0
5799,2,0.9977075723765587,3.3150573359831688,0.142,0.030606129064238666,0.0,0.0,0.0,0.0
...
